Version 4
SHEET 1 880 680
WIRE 176 -144 96 -144
WIRE 336 -144 256 -144
WIRE 544 -96 544 -176
WIRE 96 -16 96 -144
WIRE 176 -16 96 -16
WIRE 336 -16 336 -144
WIRE 336 -16 240 -16
WIRE 544 48 544 -16
WIRE 544 48 240 48
WIRE 240 112 240 48
WIRE -128 128 -336 128
WIRE 96 128 96 -16
WIRE 96 128 -48 128
WIRE 208 128 96 128
WIRE 336 144 336 -16
WIRE 336 144 272 144
WIRE 416 144 336 144
WIRE -336 160 -336 128
WIRE 208 160 96 160
WIRE 240 224 240 176
WIRE 256 224 240 224
WIRE 256 272 256 224
WIRE -336 304 -336 240
WIRE 96 304 96 160
WIRE 256 416 256 352
FLAG 96 304 0
FLAG 544 -176 0
FLAG -336 304 0
FLAG 256 416 0
SYMBOL OpAmps\\LM358 224 144 R0
WINDOW 3 -56 27 Top 2
SYMATTR InstName U1
SYMBOL res -32 112 R90
WINDOW 0 0 56 VBottom 2
WINDOW 3 32 56 VTop 2
SYMATTR InstName R1
SYMATTR Value 180k
SYMBOL res 272 -160 R90
WINDOW 0 0 56 VBottom 2
WINDOW 3 32 56 VTop 2
SYMATTR InstName R2
SYMATTR Value 180k
SYMBOL cap 240 -32 R90
WINDOW 0 0 32 VBottom 2
WINDOW 3 32 32 VTop 2
SYMATTR InstName C1
SYMATTR Value 44p
SYMBOL voltage -336 144 R0
WINDOW 123 24 44 Left 2
WINDOW 39 0 0 Left 0
SYMATTR Value2 AC 1 0
SYMATTR InstName V1
SYMATTR Value ""
SYMBOL voltage 544 0 R180
WINDOW 0 24 96 Left 2
WINDOW 3 24 16 Left 2
WINDOW 123 0 0 Left 0
WINDOW 39 0 0 Left 0
SYMATTR InstName V2
SYMATTR Value 5
SYMBOL voltage 256 368 R180
WINDOW 0 24 96 Left 2
WINDOW 3 24 16 Left 2
WINDOW 123 0 0 Left 0
WINDOW 39 0 0 Left 0
SYMATTR InstName V3
SYMATTR Value 5
TEXT -368 536 Left 2 !.ac dec 10 1 200k
